LTspice 24.0.12 for Windows
Circuit: * C:\Users\serge\Documents\repos\wulpus_pro\ltspice_sim\wulpus_pro_tx\wulpus_pro_tx.asc
Start Time: Thu Nov 28 15:55:15 2024
Error on line 17 : r6 vout_neg_filt vout_neg 1000 ohm
	 Unknown parameter "ohm"
solver = Normal
Maximum thread count: 14
tnom = 27
temp = 27
method = modified trap
WARNING: Less than two connections to node pos_shdn.  This node is used by v2.
Direct Newton iteration for .op point succeeded.
Total elapsed time: 41.781 seconds.

