LTspice 24.0.12 for Windows
Circuit: * AD8338 SPICE Model
Start Time: Wed Oct 30 15:08:22 2024
Fatal Error: No analysis request found.
