LTspice 24.0.12 for Windows
Circuit: * C:\Users\serge\Documents\repos\wulpus_pro\ltspice_sim\wulpus_pro_preamp\preamp_tia.asc
Start Time: Tue Nov 19 16:25:37 2024
solver = Normal
Maximum thread count: 14
tnom = 27
temp = 27
method = modified trap
Direct Newton iteration for .op point succeeded.
Total elapsed time: 0.128 seconds.

